@<TRIPOS>MOLECULE
1r091_BS01_JEN.pdb
41 43 1 0 0
SMALL
AMBER ff14SB


@<TRIPOS>ATOM
      1 C1         35.9440    8.1590  126.5760 C.3       1 JEN1000     0.1227
      2 O2         36.2170    7.8010  125.2290 O.3       1 JEN1000    -0.4381
      3 C3         37.0560    6.7790  125.0070 C.ar      1 JEN1000     0.5326
      4 N4         37.3490    5.9510  125.9720 N.ar      1 JEN1000    -0.3470
      5 N5         38.1940    4.9120  125.7110 N.ar      1 JEN1000    -0.3220
      6 C6         38.6980    4.7340  124.4950 C.ar      1 JEN1000     0.5122
      7 C7         38.4060    5.6520  123.4370 C.ar      1 JEN1000    -0.1893
      8 C8         37.5740    6.6690  123.6990 C.ar      1 JEN1000    -0.2053
      9 N9         39.4410    3.6010  124.2430 N.3       1 JEN1000    -0.7193
     10 C10        40.2270    3.0450  125.3350 C.3       1 JEN1000     0.1793
     11 C11        40.6620    1.6450  125.0270 C.3       1 JEN1000     0.1688
     12 N12        41.4170    1.5600  123.7790 N.pl3     1 JEN1000    -0.6210
     13 C13        40.6930    2.2130  122.6740 C.3       1 JEN1000     0.1688
     14 C14        40.2630    3.5970  123.0260 C.3       1 JEN1000     0.1793
     15 C15        42.0680    0.3560  123.4920 C.ar      1 JEN1000     0.0866
     16 C16        43.3930    0.1100  123.8460 C.ar      1 JEN1000    -0.1070
     17 C17        44.0580   -1.0570  123.5050 C.ar      1 JEN1000    -0.0773
     18 C18        43.3910   -2.0070  122.7690 C.ar      1 JEN1000    -0.1300
     19 C19        42.0840   -1.7990  122.4070 C.ar      1 JEN1000    -0.1220
     20 C20        41.4230   -0.6600  122.7700 C.ar      1 JEN1000    -0.1580
     21 C21        45.4900   -1.2660  123.9390 C.3       1 JEN1000    -0.0548
     22 H7         38.8430    5.5289  122.4570 H         1 JEN1000     0.1560
     23 H8         37.3081    7.3824  122.9330 H         1 JEN1000     0.1640
     24 H102       41.1093    3.6658  125.4907 H         1 JEN1000     0.0527
     25 H103       39.6258    3.0419  126.2442 H         1 JEN1000     0.0527
     26 H112       39.7774    1.0134  124.9449 H         1 JEN1000     0.0445
     27 H113       41.2844    1.2792  125.8437 H         1 JEN1000     0.0445
     28 H132       39.8098    1.6209  122.4341 H         1 JEN1000     0.0445
     29 H133       41.3418    2.2541  121.7991 H         1 JEN1000     0.0445
     30 H142       41.1468    4.2132  123.1913 H         1 JEN1000     0.0527
     31 H143       39.6847    4.0135  122.2013 H         1 JEN1000     0.0527
     32 H16        43.9248    0.8615  124.4107 H         1 JEN1000     0.1460
     33 H18        43.8951   -2.9161  122.4760 H         1 JEN1000     0.1320
     34 H19        41.5689   -2.5488  121.8249 H         1 JEN1000     0.1320
     35 H20        40.3852   -0.5392  122.4964 H         1 JEN1000     0.1340
     36 H211       45.8412   -2.2337  123.5808 H         1 JEN1000     0.0454
     37 H212       45.5472   -1.2391  125.0272 H         1 JEN1000     0.0454
     38 H213       46.1148   -0.4758  123.5227 H         1 JEN1000     0.0454
     39 H11        35.3649    9.0822  126.5969 H         1 JEN1000     0.0524
     40 H12        36.8828    8.3071  127.1097 H         1 JEN1000     0.0524
     41 H13        35.3752    7.3624  127.0555 H         1 JEN1000     0.0524
@<TRIPOS>BOND
     1    1    2 1
     2    2    3 1
     3    3    4 ar
     4    3    8 ar
     5    4    5 ar
     6    5    6 ar
     7    6    7 ar
     8    6    9 1
     9    7    8 ar
    10    9   10 1
    11    9   14 1
    12   10   11 1
    13   11   12 1
    14   12   13 1
    15   12   15 1
    16   13   14 1
    17   15   16 ar
    18   15   20 ar
    19   16   17 ar
    20   17   18 ar
    21   17   21 1
    22   18   19 ar
    23   19   20 ar
    24   22    7 1
    25   23    8 1
    26   24   10 1
    27   25   10 1
    28   26   11 1
    29   27   11 1
    30   28   13 1
    31   29   13 1
    32   30   14 1
    33   31   14 1
    34   32   16 1
    35   33   18 1
    36   34   19 1
    37   35   20 1
    38   36   21 1
    39   37   21 1
    40   38   21 1
    41   39    1 1
    42   40    1 1
    43   41    1 1
@<TRIPOS>SUBSTRUCTURE
     1 JEN1000     1 RESIDUE           4 1     JEN     0 ROOT
